src/case9_dc_sol.raw
0, 100, 33, 0, 0, 60  / 03-May-2022 18:37:03 - MATPOWER 7.1


     1, 'BUS 1       ',       345, 3,    1,    1, 1,           1,           0,  1.1,  0.9,  1.1,  0.9
     2, 'BUS 2       ',       345, 2,    1,    1, 1,           1,  9.79601886,  1.1,  0.9,  1.1,  0.9
     3, 'BUS 3       ',       345, 2,    1,    1, 1,           1,  5.06056005,  1.1,  0.9,  1.1,  0.9
     4, 'BUS 4       ',       345, 1,    1,    1, 1,           1, -2.21115872,  1.1,  0.9,  1.1,  0.9
     5, 'BUS 5       ',       345, 1,    1,    1, 1,           1, -3.73809125,  1.1,  0.9,  1.1,  0.9
     6, 'BUS 6       ',       345, 1,    1,    1, 1,           1,  2.20665727,  1.1,  0.9,  1.1,  0.9
     7, 'BUS 7       ',       345, 1,    1,    1, 1,           1, 0.822441057,  1.1,  0.9,  1.1,  0.9
     8, 'BUS 8       ',       345, 1,    1,    1, 1,           1,  3.95901132,  1.1,  0.9,  1.1,  0.9
     9, 'BUS 9       ',       345, 1,    1,    1, 1,           1, -4.06340049,  1.1,  0.9,  1.1,  0.9
0 / END OF BUS DATA, BEGIN LOAD DATA
     5,  1, 1,    1,    1,        90,        30, 0, 0, 0, 0, 1, 1, 0
     7,  1, 1,    1,    1,       100,        35, 0, 0, 0, 0, 1, 1, 0
     9,  1, 1,    1,    1,       125,        50, 0, 0, 0, 0, 1, 1, 0
0 / END OF LOAD DATA, BEGIN FIXED SHUNT DATA
0 / END OF FIXED SHUNT DATA, BEGIN GENERATOR DATA
     1,  1,        67,     27.03,       300,      -300,     1.04, 0,     100, 0, 1, 0, 0, 1, 1, 100,       250,        10, 1, 1, 0, 1, 0, 1, 0, 1, 0, 1
     2,  1,       163,      6.54,       300,      -300,    1.025, 0,     100, 0, 1, 0, 0, 1, 1, 100,       300,        10, 1, 1, 0, 1, 0, 1, 0, 1, 0, 1
     3,  1,        85,    -10.95,       300,      -300,    1.025, 0,     100, 0, 1, 0, 0, 1, 1, 100,       450,        10, 1, 1, 0, 1, 0, 1, 0, 1, 0, 1
0 / END OF GENERATOR DATA, BEGIN BRANCH DATA
     1,      4, 1,        0,   0.0576,        0,     250,     250,     250, 0, 0, 0, 0, 1, 1, 0, 1, 1, 0, 1, 0, 1, 0, 1
     4,      5, 1,    0.017,    0.092,    0.158,     250,     250,     250, 0, 0, 0, 0, 1, 1, 0, 1, 1, 0, 1, 0, 1, 0, 1
     5,      6, 1,    0.039,     0.17,    0.358,     150,     150,     150, 0, 0, 0, 0, 1, 1, 0, 1, 1, 0, 1, 0, 1, 0, 1
     3,      6, 1,        0,   0.0586,        0,     300,     300,     300, 0, 0, 0, 0, 1, 1, 0, 1, 1, 0, 1, 0, 1, 0, 1
     6,      7, 1,   0.0119,   0.1008,    0.209,     150,     150,     150, 0, 0, 0, 0, 1, 1, 0, 1, 1, 0, 1, 0, 1, 0, 1
     7,      8, 1,   0.0085,    0.072,    0.149,     250,     250,     250, 0, 0, 0, 0, 1, 1, 0, 1, 1, 0, 1, 0, 1, 0, 1
     8,      2, 1,        0,   0.0625,        0,     250,     250,     250, 0, 0, 0, 0, 1, 1, 0, 1, 1, 0, 1, 0, 1, 0, 1
     8,      9, 1,    0.032,    0.161,    0.306,     250,     250,     250, 0, 0, 0, 0, 1, 1, 0, 1, 1, 0, 1, 0, 1, 0, 1
     9,      4, 1,     0.01,    0.085,    0.176,     250,     250,     250, 0, 0, 0, 0, 1, 1, 0, 1, 1, 0, 1, 0, 1, 0, 1
0 / END OF BRANCH DATA, BEGIN TRANSFORMER DATA
0 / END OF TRANSFORMER DATA, BEGIN AREA DATA
0 / END OF AREA DATA, BEGIN TWO-TERMINAL DC DATA
0 / END OF TWO-TERMINAL DC DATA, BEGIN VOLTAGE SOURCE CONVERTER DATA
0 / END OF VOLTAGE SOURCE CONVERTER DATA, BEGIN IMPEDANCE CORRECTION DATA
0 / END OF IMPEDANCE CORRECTION DATA, BEGIN MULTI-TERMINAL DC DATA
0 / END OF MULTI-TERMINAL DC DATA, BEGIN MULTI-SECTION LINE DATA
0 / END OF MULTI-SECTION LINE DATA, BEGIN ZONE DATA
0 / END OF ZONE DATA, BEGIN INTER-AREA TRANSFER DATA
0 / END OF INTER-AREA TRANSFER DATA, BEGIN OWNER DATA
0 / END OF OWNER DATA, BEGIN FACTS CONTROL DEVICE DATA
0 / END OF FACTS CONTROL DEVICE DATA, BEGIN SWITCHED SHUNT DATA
0 / END OF SWITCHED SHUNT DATA, BEGIN GNE DEVICE DATA
0 / END OF GNE DEVICE DATA, BEGIN INDUCTION MACHINE DATA
0 / END OF INDUCTION MACHINE DATA
Q
